
 OpenBabel01022516573D

 29 31  0  0  1  0  0  0  0  0999 V2000
    5.4700   -1.8800    1.3880 O   0  0  0  0  0  0  0  0  0  0  0  0
    5.7850   -1.2150    0.7510 H   0  0  0  0  0  0  0  0  0  0  0  0
    4.0490   -1.8130    1.4080 C   0  0  0  0  0  2  0  0  0  0  0  0
    3.5070   -2.1320    0.0150 C   0  0  2  0  0  3  0  0  0  0  0  0
    2.0590   -2.0430    0.0460 N   0  0  0  0  0  0  0  0  0  0  0  0
    1.5100   -2.8870    0.1660 H   0  0  0  0  0  0  0  0  0  0  0  0
    1.3680   -0.8470    0.0090 C   0  0  0  0  0  0  0  0  0  0  0  0
    2.1150    0.2940   -0.0590 N   0  0  0  0  0  0  0  0  0  0  0  0
    1.3430    1.3900   -0.0910 C   0  0  0  0  0  0  0  0  0  0  0  0
    1.7480    2.6930   -0.1590 N   0  0  0  0  0  0  0  0  0  0  0  0
   -0.0420    1.4420   -0.0640 C   0  0  0  0  0  0  0  0  0  0  0  0
    0.6170    3.4660   -0.1680 C   0  0  0  0  0  3  0  0  0  0  0  0
   -0.4810    2.7410   -0.1120 N   0  0  0  0  0  0  0  0  0  0  0  0
   -0.7150    0.2260    0.0060 C   0  0  0  0  0  0  0  0  0  0  0  0
    0.0020   -0.9230    0.0420 N   0  0  0  0  0  0  0  0  0  0  0  0
    3.1070    3.1740   -0.2100 C   0  0  0  0  0  3  0  0  0  0  0  0
    3.8880    2.8160    1.0560 C   0  0  0  0  0  1  0  0  0  0  0  0
    3.8330    2.7060   -1.4720 C   0  0  0  0  0  1  0  0  0  0  0  0
   -2.1200    0.1840    0.0380 N   0  0  0  0  0  0  0  0  0  0  0  0
   -2.6080    1.0730    0.0120 H   0  0  0  0  0  0  0  0  0  0  0  0
   -2.8640   -1.0380    0.1090 C   0  0  0  0  0  2  0  0  0  0  0  0
   -4.3410   -0.7590    0.0910 C   0  0  0  0  0  0  0  0  0  0  0  0
   -5.0160   -0.5610    1.2890 C   0  0  0  0  0  3  0  0  0  0  0  0
   -6.3860   -0.3010    1.2730 C   0  0  0  0  0  3  0  0  0  0  0  0
   -7.0700   -0.2430    0.0580 C   0  0  0  0  0  3  0  0  0  0  0  0
   -6.3840   -0.4430   -1.1390 C   0  0  0  0  0  3  0  0  0  0  0  0
   -5.0130   -0.7020   -1.1230 C   0  0  0  0  0  3  0  0  0  0  0  0
    3.9320   -3.5380   -0.4280 C   0  0  0  0  0  2  0  0  0  0  0  0
    3.3940   -3.9100   -1.8040 C   0  0  0  0  0  1  0  0  0  0  0  0
  1  3  1  0  0  0  0
  2  1  1  0  0  0  0
  4 28  1  1  0  0  0
  4  5  1  0  0  0  0
  4  3  1  0  0  0  0
  5  6  1  0  0  0  0
  7 15  1  0  0  0  0
  7  5  1  0  0  0  0
  8  7  2  0  0  0  0
  9 11  2  0  0  0  0
  9  8  1  0  0  0  0
 10  9  1  0  0  0  0
 11 14  1  0  0  0  0
 12 10  1  0  0  0  0
 12 13  2  0  0  0  0
 13 11  1  0  0  0  0
 14 19  1  0  0  0  0
 14 15  2  0  0  0  0
 16 10  1  0  0  0  0
 16 17  1  0  0  0  0
 18 16  1  0  0  0  0
 19 21  1  0  0  0  0
 20 19  1  0  0  0  0
 22 21  1  0  0  0  0
 22 23  1  0  0  0  0
 24 23  2  0  0  0  0
 25 24  1  0  0  0  0
 26 27  1  0  0  0  0
 26 25  2  0  0  0  0
 27 22  2  0  0  0  0
 29 28  1  0  0  0  0
M  END
>  <REMARK>
  9 active torsions:
  status: ('A' for Active; 'I' for Inactive)
    1  A    between atoms: O_1  and  C_18 
    2  A    between atoms: N_2  and  C_8 
    3  A    between atoms: N_3  and  C_9 
    4  A    between atoms: N_3  and  C_14 
    5  A    between atoms: N_7  and  C_13 
    6  A    between atoms: N_7  and  C_20 
    7  A    between atoms: C_9  and  C_12 
    8  A    between atoms: C_9  and  C_18 
    9  A    between atoms: C_20  and  C_21 

>  <TORSDO>
F 9

$$$$
